LTspice 24.1.10 for Windows
Circuit: C:\Users\moldo\Desktop\SCIA PROIECT\bun.net
Start Time: Wed Feb 25 03:31:29 2026
solver = Normal
Maximum thread count: 16
tnom = 27
temp = 27
method = trap
Per .tran options, skipping operating point for transient analysis.
Changing Tseed to 1e-08
Changing Tseed to 1e-10
Changing Tseed to 1e-07
Changing Tseed to 1e-11
Changing Tseed to 1e-06
Changing Tseed to 1e-12
Changing Tseed to 1e-05
Changing Tseed to 1e-13
Changing Tseed to 0.0001
Changing Tseed to 1e-14
Changing Tseed to 0.001
Changing Tseed to 1e-15
Total elapsed time: 3.469 seconds.

Files loaded:
C:\Users\moldo\Desktop\SCIA PROIECT\bun.net
C:\Users\moldo\AppData\Local\LTspice\lib\cmp\standard.dio
C:\Users\moldo\AppData\Local\LTspice\lib\cmp\standard.bjt
C:\Users\moldo\AppData\Local\LTspice\lib\sub\ADI1.lib
C:\Users\moldo\Desktop\SCIA PROIECT\LM324.lib
C:\Users\moldo\AppData\Local\LTspice\lib\sub\NE555.sub

