LTspice 24.1.10 for Windows
Circuit: C:\Users\moldo\Desktop\SCIA PROIECT\SCIAPROIECT.net
Start Time: Tue Feb 24 22:22:43 2026
solver = Normal
Maximum thread count: 16
tnom = 27
temp = 27
method = trap
Early termination of direct N-R iteration.
Direct Newton iteration failed to find .op point.  (Use ".option noopiter" to skip.)
Starting Gmin stepping
Gmin = 10
vernier = 0.5
vernier = 0.25
vernier = 0.125
vernier = 0.0625
Gmin = 8.61953
vernier = 0.03125
vernier = 0.015625
vernier = 0.0078125
vernier = 0.00390625
Gmin = 8.47038
vernier = 0.00195312
vernier = 0.000976562
vernier = 0.000488281
Gmin = 0
Gmin = 0
Gmin stepping failed

Starting source stepping with srcstepmethod=0
Source Step = 3.0303%
Source Step = 33.3333%
Source Step = 54.7348%
vernier = 0.015625
Source Step = 54.5691%
Starting source stepping with srcstepmethod=1
Source Step = 3.0303%
vernier = 0.25
Source stepping failed

Pseudo transient terminated at 100.061 s, solution accepted ready or not!
Total elapsed time: 22.812 seconds.

Files loaded:
C:\Users\moldo\Desktop\SCIA PROIECT\SCIAPROIECT.net
C:\Users\moldo\AppData\Local\LTspice\lib\cmp\standard.dio
C:\Users\moldo\AppData\Local\LTspice\lib\cmp\standard.bjt
C:\Users\moldo\AppData\Local\LTspice\lib\sub\ADI1.lib
C:\Users\moldo\Desktop\SCIA PROIECT\LM324.lib
C:\Users\moldo\AppData\Local\LTspice\lib\sub\NE555.sub

